Testing how to push a commit to a fork then pull a request to have the fork added.
New line.